LTspice 24.0.12 for Windows
Circuit: * C:\Users\Admin\Documents\LTspice\Draft10.asc
Start Time: Tue Dec 17 15:55:14 2024
solver = Normal
Maximum thread count: 4
tnom = 27
temp = 27
method = modified trap
Direct Newton iteration for .op point succeeded.
Total elapsed time: 0.091 seconds.

