LTspice 24.0.12 for Windows
Circuit: * C:\Users\Admin\Documents\LTspice\Draft8.asc
Start Time: Tue Dec 17 14:41:24 2024
solver = Normal
Maximum thread count: 4
tnom = 27
temp = 27
method = modified trap
Direct Newton iteration for .op point succeeded.
Total elapsed time: 1.629 seconds.

