LTspice 24.0.12 for Windows
Circuit: * C:\Users\Admin\Documents\LTspice\Draft9.asc
Start Time: Tue Dec 17 15:35:21 2024
solver = Normal
Maximum thread count: 4
tnom = 27
temp = 27
method = modified trap
WARNING: Less than two connections to node nc_03.  This node is used by v1.
WARNING: Less than two connections to node nc_04.  This node is used by v2.
Direct Newton iteration for .op point succeeded.
Total elapsed time: 0.122 seconds.

