LTspice 24.0.12 for Windows
Circuit: * C:\Users\Admin\Documents\LTspice\Draft1.asc
Start Time: Sat Dec 28 11:03:28 2024
solver = Normal
Maximum thread count: 4
tnom = 27
temp = 27
method = modified trap
.OP point found by inspection.
Total elapsed time: 0.189 seconds.

