LTspice 24.0.12 for Windows
Circuit: * C:\Users\Admin\Documents\LTspice\Draft5.asc
Start Time: Tue Dec 17 12:14:27 2024
solver = Normal
Maximum thread count: 4
tnom = 27
temp = 27
method = modified trap
WARNING: Less than two connections to node n003.  This node is used by v3.
Direct Newton iteration for .op point succeeded.
Total elapsed time: 0.223 seconds.

