LTspice 24.0.12 for Windows
Circuit: * C:\Users\Admin\Documents\LTspice\Draft2.asc
Start Time: Tue Dec 17 02:15:18 2024
solver = Normal
Maximum thread count: 4



Direct Newton iteration for .op point succeeded.



























tnom = 27
temp = 27
method = modified trap
Total elapsed time: 0.193 seconds.

