LTspice 24.0.12 for Windows
Circuit: * C:\Users\Admin\Documents\LTspice\Draft6.asc
Start Time: Tue Dec 17 12:54:40 2024
solver = Normal
Maximum thread count: 4
tnom = 27
temp = 27
method = modified trap
WARNING: Node N005 is floating.

.OP point found by inspection.
Total elapsed time: 0.415 seconds.

